Circuit: * Z:\home\hpsilva\Documents\ufpe_ee\5th semester\Electromagnetic Measurements\Projeto\Conversor Tensao.asc

d2: both pins shorted together -- ignoring.
.OP point found by inspection.

Date: Thu Mar 16 12:27:08 2023
Total elapsed time: 0.063 seconds.

tnom = 27
temp = 27
method = modified trap
totiter = 2501
traniter = 2501
tranpoints = 1096
accept = 1088
rejected = 8
matrix size = 3
fillins = 0
solver = Normal
Avg thread counts: 1.6/2.3/2.3/1.6
Matrix Compiler1:       3 opcodes  0.2/[0.1]/0.2
Matrix Compiler2: 175 bytes object code size  0.2/0.2/[0.2]

