Circuit: * Z:\home\hpsilva\Documents\ufpe_ee\5th semester\Circuits II\Relatorio 3\Circuito1.asc

Direct Newton iteration for .op point succeeded.

Date: Mon Mar  6 21:15:54 2023
Total elapsed time: 0.026 seconds.

tnom = 27
temp = 27
method = trap
totiter = 3
traniter = 0
tranpoints = 0
accept = 0
rejected = 0
matrix size = 9
fillins = 0
solver = Normal
Avg thread counts: 16.0/0.0/16.0/4.3
Matrix Compiler1:      19 opcodes
Matrix Compiler2: 619 bytes object code size
